  Page 1                                    Thu Feb 10 13:39:52 2022

  ******************************************************************
  *                           E P A N E T                          *
  *                   Hydraulic and Water Quality                  *
  *                   Analysis for Pipe Networks                   *
  *                         Version 2.1                            *
  ******************************************************************
  
  Analysis begun Thu Feb 10 13:39:52 2022

  Analysis ended Thu Feb 10 13:39:52 2022
