  Page 1                                    Tue Sep 27 08:11:06 2022

  ******************************************************************
  *                           E P A N E T                          *
  *                   Hydraulic and Water Quality                  *
  *                   Analysis for Pipe Networks                   *
  *                         Version 2.1                            *
  ******************************************************************
  
  Analysis begun Tue Sep 27 08:11:06 2022

  Analysis ended Tue Sep 27 08:11:08 2022
