  Page 1                                    Fri Sep 23 01:25:38 2022

  ******************************************************************
  *                           E P A N E T                          *
  *                   Hydraulic and Water Quality                  *
  *                   Analysis for Pipe Networks                   *
  *                         Version 2.1                            *
  ******************************************************************
  
  Analysis begun Fri Sep 23 01:25:38 2022

  Analysis ended Fri Sep 23 01:25:38 2022
