  Page 1                                    Mon Sep 20 14:22:58 2021

  ******************************************************************
  *                           E P A N E T                          *
  *                   Hydraulic and Water Quality                  *
  *                   Analysis for Pipe Networks                   *
  *                         Version 2.1                            *
  ******************************************************************
  
  Analysis begun Mon Sep 20 14:22:58 2021

  Analysis ended Mon Sep 20 14:22:58 2021
